output/compact_ny_2025/partial_spc/nominal/S2_2025_WINTER_PEAK_PUBLIC/replay_audit_branch.csv
branch_row,device_key,from_bus,to_bus,online,rate_a_mva,from_mva,to_mva,from_overload_mva,to_overload_mva,angle_deg,angle_min_deg,angle_max_deg,angle_below_min_deg,angle_above_max_deg,violated,invalid_limit_bounds,stored_terminal_flow_error_mva,stored_terminal_flow_inconsistent
1,NPCC_S7:BRANCH_ROW:33,37,38,1,2500,122.407427340948,122.442898116436,0,0,-0.939718911260143,-360,360,0,0,0,0,1.57629325847813e-12,0
2,NPCC_S7:BRANCH_ROW:34,37,39,1,3388,971.456647145236,965.2240658959,0,0,3.43266108267418,-360,360,0,0,0,0,3.16366310514514e-12,0
3,NPCC_S7:BRANCH_ROW:35,37,40,1,2500,83.1168907404541,87.9230462508761,0,0,0.40626234407836,-360,360,0,0,0,0,7.96093298783076e-13,0
4,NPCC_S7:BRANCH_ROW:36,37,43,0,3745.98196383403,0,0,0,0,-5.3729080710574,-360,360,0,0,0,0,0,0
5,NPCC_S7:BRANCH_ROW:37,38,69,1,1216,415.909968524331,424.489960577875,0,0,-9.74175480158945,-360,360,0,0,0,0,1.14571573537582e-13,0
6,NPCC_S7:BRANCH_ROW:38,39,73,1,2500,663.630143364161,658.98579315566,0,0,5.84252346840019,-360,360,0,0,0,0,1.13908665908592e-13,0
7,NPCC_S7:BRANCH_ROW:39,39,73,1,2500,663.630143364161,658.98579315566,0,0,5.84252346840019,-360,360,0,0,0,0,1.13908665908592e-13,0
8,NPCC_S7:BRANCH_ROW:40,40,44,0,1328.76341358641,0,0,0,0,-3.7195610609557,-360,360,0,0,0,0,0,0
9,NPCC_S7:BRANCH_ROW:41,41,42,1,2500,227.400800743734,229.031415252086,0,0,-1.06607438005948,-360,360,0,0,0,0,0,0
10,NPCC_S7:BRANCH_ROW:42,41,45,1,314.254622579561,21.5293324975027,20.4625707921148,0,0,-2.14954829497311,-360,360,0,0,0,0,1.07263862985856e-13,0
11,NPCC_S7:BRANCH_ROW:43,43,44,1,2500,396.936655434059,394.543326624122,0,0,2.05960935418006,-360,360,0,0,0,0,1.56422719394607e-12,0
12,NPCC_S7:BRANCH_ROW:44,43,50,1,3463.47124449306,509.323745628513,513.118988042374,0,0,-6.60802595373038,-360,360,0,0,0,0,8.27774663276313e-13,0
13,NPCC_S7:BRANCH_ROW:45,43,50,1,3463.47124449306,509.323745628513,513.118988042374,0,0,-6.60802595373038,-360,360,0,0,0,0,8.27774663276313e-13,0
14,NPCC_S7:BRANCH_ROW:46,44,45,1,2500,324.197991319798,319.649248527817,0,0,3.12788531546353,-360,360,0,0,0,0,7.89821867305719e-13,0
15,NPCC_S7:BRANCH_ROW:47,44,48,0,6896.14528055676,0,0,0,0,-5.55864883971563,-360,360,0,0,0,0,0,0
16,NPCC_S7:BRANCH_ROW:48,45,46,1,2040.85471944324,41.4875504990889,46.0463133700883,0,0,-7.87941971213379,-360,360,0,0,0,0,5.00226627775956e-14,0
17,NPCC_S7:BRANCH_ROW:49,45,51,1,489.56239109923,106.644909334421,109.605835568771,0,0,-10.7037705796198,-360,360,0,0,0,0,2.94425452624135e-13,0
18,NPCC_S7:BRANCH_ROW:50,45,71,1,166.495119914644,44.3639502378755,48.4594000675511,0,0,-13.4526656354599,-360,360,0,0,0,0,4.9737991503207e-14,0
19,NPCC_S7:BRANCH_ROW:51,46,47,1,2500,68.7578549133629,71.5549952947814,0,0,-4.55321965477211,-360,360,0,0,0,0,1.02537496286898e-13,0
20,NPCC_S7:BRANCH_ROW:52,46,49,1,2500,13.78048432373,13.6293899525174,0,0,3.74778846390396,-360,360,0,0,0,0,2.49679260322299e-14,0
21,NPCC_S7:BRANCH_ROW:53,47,48,1,2500,267.220530106393,258.021408922172,0,0,3.74610521172674,-360,360,0,0,0,0,1.21417595910849e-13,0
22,NPCC_S7:BRANCH_ROW:54,50,51,1,2500,126.358971434343,124.934258681332,0,0,1.09175004375421,-360,360,0,0,0,0,7.94410929039127e-13,0
23,NPCC_S7:BRANCH_ROW:55,50,52,1,2858.06690137886,370.426771080491,377.433076799496,0,0,-3.91436422453909,-360,360,0,0,0,0,3.49901718330021e-13,0
24,NPCC_S7:BRANCH_ROW:56,51,53,1,290.964700741948,16.5050580398309,20.453429709685,0,0,-1.53088928581222,-360,360,0,0,0,0,1.07319006779912e-13,0
25,NPCC_S7:BRANCH_ROW:57,51,72,1,2500,194.78068001671,198.89866049859,0,0,-2.27488984052929,-360,360,0,0,0,0,8.617216699233e-13,0
26,NPCC_S7:BRANCH_ROW:58,52,53,1,2500,188.430968736845,186.471753420879,0,0,3.47522498248108,-360,360,0,0,0,0,9.10631969331369e-14,0
27,NPCC_S7:BRANCH_ROW:59,53,55,1,997.983883346124,141.96468912158,149.775390256824,0,0,-7.75614812199261,-360,360,0,0,0,0,8.74754295825051e-14,0
28,NPCC_S7:BRANCH_ROW:60,53,65,1,785.968397879188,10.5826474078569,12.1035182748969,0,0,0.362670843804917,-360,360,0,0,0,0,1.77722398948334e-15,0
29,NPCC_S7:BRANCH_ROW:61,54,56,1,789.941803,5.39282901900146,10.5558945858418,0,0,-0.0433175782108464,-360,360,0,0,0,0,1.7485219603417e-12,0
30,NPCC_S7:BRANCH_ROW:62,54,62,1,789.941803,63.612614502959,62.4939648226057,0,0,2.06419221118415,-360,360,0,0,0,0,4.3790709029241e-13,0
31,NPCC_S7:BRANCH_ROW:65,55,57,1,789.941803,29.226644834631,29.3545214247156,0,0,0.545164259129759,-360,360,0,0,0,0,1.95863103020207e-13,0
32,NPCC_S7:BRANCH_ROW:66,55,59,1,789.941803,15.3912744840888,17.3619408251551,0,0,0.515117611176571,-360,360,0,0,0,0,2.75060123787395e-13,0
33,NPCC_S7:BRANCH_ROW:67,56,58,1,2500,232.430773510921,231.541136139803,0,0,1.65405903542086,-360,360,0,0,0,0,8.03072440352915e-13,0
34,NPCC_S7:BRANCH_ROW:68,57,59,1,2500,5.45966130269244,9.01404529196796,0,0,-0.0300466479531885,-360,360,0,0,0,0,1.94704759560623e-13,0
35,NPCC_S7:BRANCH_ROW:69,58,60,1,2500,44.1155288744629,36.2710029350248,0,0,-0.567497257610899,-360,360,0,0,0,0,1.93361970055787e-13,0
36,NPCC_S7:BRANCH_ROW:70,58,62,1,2500,54.6335644401205,53.5135510997762,0,0,0.453450753974135,-360,360,0,0,0,0,8.71045410845111e-13,0
37,NPCC_S7:BRANCH_ROW:71,59,61,1,2500,17.0740862375498,18.6967923967901,0,0,-1.2946557962059,-360,360,0,0,0,0,3.56829203518054e-15,0
38,NPCC_S7:BRANCH_ROW:73,62,63,1,620,114.133528486871,111.986878537827,0,0,4.38452647269924,-360,360,0,0,0,0,2.09768113146941e-13,0
39,NPCC_S7:BRANCH_ROW:74,63,64,1,2500,99.5836665909925,99.1605276818994,0,0,2.19485123957481,-360,360,0,0,0,0,1.77635683940025e-15,0
40,NPCC_S7:BRANCH_ROW:75,63,67,1,2500,21.9059632153491,13.6718441998529,0,0,0.624844145553531,-360,360,0,0,0,0,1.77635683940025e-15,0
41,NPCC_S7:BRANCH_ROW:76,64,65,1,2500,35.9811356260421,35.4317287983644,0,0,1.41596976690316,-360,360,0,0,0,0,7.10889595793335e-15,0
42,NPCC_S7:BRANCH_ROW:77,64,68,1,2500,17.3277351129932,23.3094465326734,0,0,-2.34196399097311,-360,360,0,0,0,0,5.12687481434491e-14,0
43,NPCC_S7:BRANCH_ROW:78,66,67,1,2500,93.2583771039612,92.9015983512082,0,0,-0.998181701668898,-360,360,0,0,0,0,3.83577925791594e-13,0
44,NPCC_S7:BRANCH_ROW:79,66,69,1,2500,259.365047392461,257.554206499164,0,0,3.36372386944682,-360,360,0,0,0,0,4.12864462505743e-13,0
45,NPCC_S7:BRANCH_ROW:81,67,68,1,2500,39.8491654613739,39.4826828675742,0,0,-0.771956896951828,-360,360,0,0,0,0,1.93288521312744e-13,0
46,NPCC_S7:BRANCH_ROW:82,67,70,1,2500,26.7738976777473,30.2566876647133,0,0,0.769997354992471,-360,360,0,0,0,0,3.67591138220453e-15,0
47,NPCC_S7:BRANCH_ROW:84,68,71,1,2500,21.0305340598928,17.2373448759858,0,0,2.17725714404338,-360,360,0,0,0,0,6.75249289683258e-14,0
48,NPCC_S7:BRANCH_ROW:85,69,71,1,2500,170.815497150666,168.464980735272,0,0,-2.95660532402416,-360,360,0,0,0,0,1.17185710042169e-13,0
49,NPCC_S7:BRANCH_ROW:86,70,71,1,2500,30.2566876647133,30.0815716180425,0,0,0.635302892099086,-360,360,0,0,0,0,3.5527136788005e-15,0
50,NPCC_S7:BRANCH_ROW:87,71,72,1,2500,69.1877236144285,66.4073174847843,0,0,0.474005215310898,-360,360,0,0,0,0,1.4210854715202e-14,0
51,NPCC_S7:BRANCH_ROW:88,73,74,0,1599.84337349398,0,0,0,0,4.19215374092567,-360,360,0,0,0,0,0,0
52,NPCC_S7:BRANCH_ROW:89,73,74,0,1599.84337349398,0,0,0,0,4.19215374092567,-360,360,0,0,0,0,0,0
53,NPCC_S7:BRANCH_ROW:90,74,77,1,2500,73.5738020582559,72.9833217727,0,0,-0.150311903495416,-360,360,0,0,0,0,7.71849020901451e-13,0
54,NPCC_S7:BRANCH_ROW:91,74,78,1,2889.50495049505,585.023813821527,582.469178872082,0,0,1.27114673406411,-360,360,0,0,0,0,8.211688631353e-13,0
55,NPCC_S7:BRANCH_ROW:92,74,78,1,2889.50495049505,585.023813821527,582.469178872082,0,0,1.27114673406411,-360,360,0,0,0,0,8.211688631353e-13,0
56,NPCC_S7:BRANCH_ROW:94,76,77,0,4611.31325301205,0,0,0,0,0.438290804369617,-360,360,0,0,0,0,0,0
57,NPCC_S7:BRANCH_ROW:95,78,79,0,908.848753535103,0,0,0,0,1.88172038264272,-360,360,0,0,0,0,0,0
58,NPCC_S7:BRANCH_ROW:96,78,80,1,984.654731457801,45.0817770577071,38.4236738722205,0,0,0.858519402446447,-360,360,0,0,0,0,3.5527136788005e-15,0
59,NPCC_S7:BRANCH_ROW:97,78,81,0,503.818330764024,0,0,0,0,-0.691093251523696,-360,360,0,0,0,0,0,0
60,NPCC_S7:BRANCH_ROW:98,78,82,1,451.473569126203,172.395198457785,172.188235053837,0,0,2.56458150421237,-360,360,0,0,0,0,7.98090460399566e-13,0
61,NPCC_S7:BRANCH_ROW:219,40,41,1,2500,231.478069303528,227.364825000918,0,0,1.55787254948094,-360,360,0,0,0,0,2.8421709430404e-14,0
62,NPCC_S7:BRANCH_ROW:220,49,48,0,2500,0,0,0,0,-4.55490290694934,-360,360,0,0,0,0,0,0
63,NPCC_S7:BRANCH_ROW:222,54,52,1,4583.01611665388,560.607835738676,557.201646315801,0,0,6.22164386407536,-360,360,0,0,0,0,3.9664898706196e-13,0
64,NPCC_S7:BRANCH_ROW:223,54,55,1,2500,315.199326921224,315.237603677463,0,0,1.94072072456383,-360,360,0,0,0,0,1.14675219438826e-12,0
65,NPCC_S7:BRANCH_ROW:224,56,57,1,2500,37.6282688253822,37.5301533328588,0,0,2.52920256190443,-360,360,0,0,0,0,2.44249065417534e-15,0
66,NPCC_S7:BRANCH_ROW:225,58,59,1,2500,193.804845679048,193.24239368562,0,0,0.845096878530388,-360,360,0,0,0,0,2.8421709430404e-14,0
67,NPCC_S7:BRANCH_ROW:226,60,61,1,2500,4.88678709090019,4.8791372885898,0,0,0.117938339935389,-360,360,0,0,0,0,9.8217033041602e-14,0
68,NPCC_S7:BRANCH_ROW:227,75,76,1,2500,119.732207619278,119.723483414838,0,0,0.426343595612126,-360,360,0,0,0,0,3.10419347394234e-12,0
69,NPCC_S7:BRANCH_ROW:234,38,39,1,1216,461.009518531792,458.664312017521,0,0,4.37237999393432,-360,360,0,0,0,0,5.6843418860808e-14,0
70,NPCC_S7:BRANCH_ROW:235,73,9002,0,2432,0,0,0,0,2.19997216620092,-360,360,0,0,0,0,0,0
71,NPCC_S7:BRANCH_ROW:236,9002,74,0,2432,0,0,0,0,1.99218157472475,-360,360,0,0,0,0,0,0
72,NPCC_S7:BRANCH_ROW:237,74,78,1,866.851485148515,175.984200899301,175.726395234826,0,0,1.27114673406411,-360,360,0,0,0,0,1.78729356289968e-13,0
73,NPCC_S7:BRANCH_ROW:238,77,78,1,650.138613861386,147.748654183031,147.479823067244,0,0,1.42145863755952,-360,360,0,0,0,0,2.05624813709975e-13,0
74,NPCC_S7:BRANCH_ROW:239,78,81,0,1158.78216075726,0,0,0,0,-0.691093251523696,-360,360,0,0,0,0,0,0
75,NPCC_S7:BRANCH_ROW:240,78,79,0,1390.53859290871,0,0,0,0,1.88172038264272,-360,360,0,0,0,0,0,0
76,NPCC_S7:BRANCH_ROW:241,78,82,1,1390.53859290871,530.093860485673,529.457473679314,0,0,2.56458150421237,-360,360,0,0,0,0,1.77176078753632e-12,0
77,NPCC_S7:BRANCH_ROW:242,78,9003,1,2865.3452685422,43.5648853615646,43.5742508507869,0,0,-0.421170807936051,-360,360,0,0,0,0,7.44429167831138e-15,0
78,NPCC_S7:BRANCH_ROW:243,9003,80,1,5000,132.486528947527,132.315864043915,0,0,1.2796902103825,-360,360,0,0,0,0,5.77315972805081e-15,0
79,NPCC_S7:BRANCH_ROW:244,81,80,1,2950,106.481753568268,106.596978429755,0,0,1.54961265397014,-360,360,0,0,0,0,1.77635683940025e-13,0
80,NPCC_S7:BRANCH_ROW:245,39,9001,1,5000,216.620126725952,216.741210636767,0,0,3.63141393112139,-360,360,0,0,0,0,5.72857867687912e-14,0
81,NPCC_S7:BRANCH_ROW:246,9001,73,0,5000,0,0,0,0,2.2111095372788,-360,360,0,0,0,0,0,0
82,PERFORM2019:AC:651:858:1,73,858,1,1216,369.672290273993,368.283761464554,0,0,0.937093729749392,-360,360,0,0,0,0,1.60678521497379e-12,0
83,PERFORM2019:AC:651:858:2,73,858,1,1216,369.672356234615,368.283711665122,0,0,0.937093729749392,-360,360,0,0,0,0,1.20390348761578e-12,0
84,PERFORM2019:AC:651:902:1,73,9002,1,1216,370.386164226146,367.596998234842,0,0,2.19997216620092,-360,360,0,0,0,0,1.71121351098581e-13,0
85,PERFORM2019:AC:651:902:2,73,9002,1,1216,370.386229698968,367.596970999252,0,0,2.19997216620092,-360,360,0,0,0,0,1.7495085916501e-13,0
86,PERFORM2019:AC:858:902:1,858,9002,1,1216,368.283786364626,366.852018907658,0,0,1.26287843645153,-360,360,0,0,0,0,4.60826817454775e-13,0
87,PERFORM2019:AC:858:902:2,858,9002,1,1216,368.28368676576,366.852073836603,0,0,1.26287843645153,-360,360,0,0,0,0,4.61415313994116e-13,0
88,PERFORM2019:AC:897:902:1,9002,74,1,1216,734.449331964063,733.196137145342,0,0,1.99218157472475,-360,360,0,0,0,0,8.1696966570944e-13,0
89,PERFORM2019:AC:897:902:2,9002,74,1,1216,734.448702916,733.196918496988,0,0,1.99218157472475,-360,360,0,0,0,0,7.01424813767121e-13,0
90,PERFORM2019:AC:774:1519:1,76,774,1,1216,113.127000811743,111.773259365828,0,0,0.148808352316669,-360,360,0,0,0,0,1.24364487969788e-11,0
91,PERFORM2019:AC:774:900:1,774,77,1,1725,111.773259365829,110.84400841491,0,0,0.289482452052948,-360,360,0,0,0,0,7.845949178468e-13,0
92,PERFORM2019:AC:900:1519:1,76,77,1,1725,112.191937697961,109.873087418971,0,0,0.438290804369617,-360,360,0,0,0,0,3.1229161579705e-12,0
93,NY2025:CEEC:351,43,9101,1,2000,283.986673885718,274.885792587817,0,0,3.51949891176124,-360,360,0,0,0,0,2.84572143904438e-13,0
94,NY2025:CEEC:352,43,9101,1,2000,283.986673885718,274.885792587817,0,0,3.51949891176124,-360,360,0,0,0,0,2.84572143904438e-13,0
95,NY2025:CEEC:361,9101,37,1,2000,378.045772144249,376.988663231578,0,0,1.85340915929615,-360,360,0,0,0,0,1.56909431625385e-12,0
96,NY2025:CEEC:362,9101,37,1,2000,378.045772144249,376.988663231578,0,0,1.85340915929615,-360,360,0,0,0,0,1.56909431625385e-12,0
97,NY2025:CEEC:14,43,9102,1,2000,251.552796681192,241.705217880262,0,0,3.32371419272282,-360,360,0,0,0,0,8.00370489437805e-13,0
98,NY2025:CEEC:371,9101,9102,1,2000,207.649615604437,208.513292172156,0,0,-0.195784719038423,-360,360,0,0,0,0,7.96948989591894e-13,0
99,NY2025:CEEC:LEGACY230:1,40,9103,1,1328.76341358641,169.313938211257,166.33828200779,0,0,-2.03985518029474,-360,360,0,0,0,0,2.8421709430404e-14,0
100,NY2025:CEEC:LEGACY230:2,9103,44,1,1328.76341358641,128.359503684248,132.187981058829,0,0,-1.67970588066096,-360,360,0,0,0,0,1.84954492494786e-13,0
101,NY2025:CEEC:GORDON_XFMR,9102,9103,1,1200,55.0650831088452,54.5802931768814,0,0,0.415601042118199,-360,360,0,0,0,0,5.72857867687912e-14,0
102,NY2025:NYES:1,9001,9104,1,1800,216.741210636766,215.435514178435,0,0,0.904153668799011,-360,360,0,0,0,0,5.73251744197044e-13,0
103,NY2025:NYES:2,9104,73,1,1800,215.435514178436,218.147846275485,0,0,1.30695586847979,-360,360,0,0,0,0,5.85928550210846e-14,0
104,NY2025:SMART_PATH:1,1220,48,0,575,0,0,0,0,-2.56649603693757,-360,360,0,0,0,0,0,0
105,NY2025:SMART_PATH:2,1220,48,0,575,0,0,0,0,-2.56649603693757,-360,360,0,0,0,0,0,0
106,NY2025:SMART_PATH:3,1220,44,0,453,0,0,0,0,2.99215280277806,-360,360,0,0,0,0,0,0
107,NY2025:SMART_PATH:4,1220,44,0,453,0,0,0,0,2.99215280277806,-360,360,0,0,0,0,0,0
108,NY2025:NYC:DELIVERY:95:1,78,1130,1,908.848753535103,240.133191858785,239.990742326787,0,0,0.886653445614458,-360,360,0,0,0,0,2.89169943032514e-14,0
109,NY2025:NYC:DELIVERY:95:2,1130,79,1,908.848753535103,269.144391372266,268.977758497411,0,0,0.995066937028259,-360,360,0,0,0,0,5.70926725628887e-14,0
110,NY2025:NYC:DELIVERY:240:1,78,557,1,1390.53859290871,368.400435251107,368.192583562914,0,0,0.89054106503276,-360,360,0,0,0,0,1.77635683940025e-14,0
111,NY2025:NYC:DELIVERY:240:2,557,79,1,1390.53859290871,409.569517947127,409.304063979121,0,0,0.991179317609957,-360,360,0,0,0,0,5.85928550210846e-14,0
112,NY2025:NYC:DELIVERY:97:1,78,1129,1,503.818330764024,47.596862138857,47.5520928807568,0,0,-0.312690022101128,-360,360,0,0,0,0,7.105427357601e-15,0
113,NY2025:NYC:DELIVERY:97:2,1129,81,1,503.818330764024,57.5972959827175,57.5273846760713,0,0,-0.378403229422569,-360,360,0,0,0,0,7.105427357601e-15,0
114,NY2025:NYC:DELIVERY:239:1,78,1129,1,1158.78216075726,109.294192429541,109.19139111681,0,0,-0.312690022101128,-360,360,0,0,0,0,2.8421709430404e-14,0
115,NY2025:NYC:DELIVERY:239:2,1129,81,1,1158.78216075726,132.257667158634,132.097133470944,0,0,-0.378403229422569,-360,360,0,0,0,0,2.8421709430404e-14,0
116,NY2025:NYC:RAINEY_XFMR,1130,1529,1,1500,29.3620304711204,29.3997665645748,0,0,-0.455118502877907,-360,360,0,0,0,0,8.88178419700125e-16,0
117,NY2025:NYC:ASTORIA_XFMR,557,1493,1,1500,41.9367761564399,41.999379379402,0,0,-0.499226260255108,-360,360,0,0,0,0,1.92029432677796e-13,0
118,NY2025:NYC:CORONA_BASELINE,1493,601,1,2248,41.9993793794165,42.3247845297454,0,0,-0.0201518423014377,-360,360,0,0,0,0,2.47952906072927e-11,0
119,NY2025:RCC_QUEENS:CABLE,1529,601,1,300,29.3997665645756,29.0987041168618,0,0,-0.0603719802603369,-360,360,0,0,0,0,6.24817253738691e-12,0
120,NY2025:RCC_BROOKLYN:PAR,1129,9112,1,300,33.2371649304069,33.3067667938927,0,0,0.467740723329976,-360,360,0,0,0,0,1.90426778818525e-13,0
121,NY2025:RCC_BROOKLYN:CABLE,9112,9111,1,300,33.3067667939078,33.1058012411439,0,0,0.0118112980898921,-360,360,0,0,0,0,2.55600025126073e-11,0
122,NY2025:RCC_STATEN:PAR,81,9113,1,300,41.8922100661183,42.0252623243144,0,0,0.582043262556631,-360,360,0,0,0,0,1.96919391267199e-13,0
123,NY2025:RCC_STATEN:CABLE,9113,9114,1,300,42.0252623243176,40.2153605208429,0,0,0.134336025857882,-360,360,0,0,0,0,7.68602324305247e-13,0
124,NY2025:NYC:GREENWOOD_CORONA,9111,601,1,600,71.8301048500402,71.0584502766658,0,0,0.204300963157474,-360,360,0,0,0,0,6.20741537025105e-12,0
125,NY2025:NYC:FOX_GREENWOOD,9114,9111,1,600,40.2153605208394,39.1893175880294,0,0,0.141575962427924,-360,360,0,0,0,0,7.32410687763558e-15,0
126,NY2025_SPC:MH2,48,9120,1,433.826765771777,92.0971569000624,91.5180152427435,0,0,0.0819885502420092,-360,360,0,0,0,0,1.24545879755718e-11,0
127,NY2025_SPC:MH3,48,9120,1,433.826765771777,92.0971569000624,91.5180152427435,0,0,0.0819885502420092,-360,360,0,0,0,0,1.24545879755718e-11,0
128,NY2025_SPC:HA2,9121,1220,1,1300.88273978672,134.212065428969,82.7997938531611,0,0,1.63846843429643,-360,360,0,0,0,0,7.81726188249369e-13,0
129,NY2025_SPC:HW2,9121,9123,1,1863.78193173853,52.918271407364,41.3037852052244,0,0,0.340980344836593,-360,360,0,0,0,0,3.73628961303787e-13,0
130,NY2025_SPC:LINE11,9122,43,1,1863.78193173853,80.2653483881664,86.3718038146219,0,0,0.725845874358719,-360,360,0,0,0,0,1.61286940607627e-12,0
131,NY2025_SPC:LINE13,1220,9122,1,1863.78193173853,82.7997938531588,80.2653483881648,0,0,0.206697574239285,-360,360,0,0,0,0,6.25212302758918e-12,0
132,NY2025_SPC:AT2,9120,9121,1,450,91.518015242747,92.951983823485,0,0,0.846039052399133,-360,360,0,0,0,0,7.71356240108224e-13,0
133,NY2025_SPC:AT3,9120,9121,1,450,91.518015242747,92.951983823485,0,0,0.846039052399133,-360,360,0,0,0,0,7.71356240108224e-13,0
134,NY2025_SPC:TR2,9123,9124,1,1350,41.3037852052249,41.2894405463372,0,0,0.178990607720278,-360,360,0,0,0,0,1.5822360096767e-12,0
135,NY2025_SPC:PLATTS_REGIONAL_EQ,49,9124,1,2500,40.971344112434,41.2894405463376,0,0,-3.10690435175132,-360,360,0,0,0,0,1.06021125434954e-13,0
